/*--------------------------------*- C++ -*----------------------------------*\
  =========                 |
  \\      /  F ield         | OpenFOAM: The Open Source CFD Toolbox
   \\    /   O peration     | Website:  https://openfoam.org
    \\  /    A nd           | Version:  6
     \\/     M anipulation  |
\*---------------------------------------------------------------------------*/
FoamFile
{
    version     2.0;
    format      ascii;
    class       dictionary;
    location    "constant";
    object      phaseProperties;
}
// * * * * * * * * * * * * * * * * * * * * * * * * * * * * * * * * * * * * * //

// ------------------------------------------------------------------------- //
// --- THERMAL-HYDRAULICS TYPE --------------------------------------------- //
// ------------------------------------------------------------------------- //

thermalHydraulicsType    "onePhase";

// ------------------------------------------------------------------------- //
// --- STRUCTURES PROPERTIES ----------------------------------------------- //
// ------------------------------------------------------------------------- //

structureProperties
{    
    "intermed:main_fd"
    {
        volumeFraction      0;
        Dh                  1;
    }

    "hx"
    {
        volumeFraction      0.6;
        Dh                  0.01;

        powerModel
        {
            type            fixedTemperature;
            volumetricArea  200;
            T               900;
        }
    }

    "pump"
    {
        volumeFraction      0;
        Dh                  1;
        momentumSource      (0 0 -300000);

        momentumSourceTimeProfile
        {
            type                            table;

            //- Time after which the time table is applied
            startTime                    200; 

            //- Left column is time elapsed since the startTime defined
            //  above
            table       table
            (
(	0	1	)
(	1	0	)
(	2	0	)
(	3	0	)
(	4	0	)
(	5	0	)
(	1000	0	)
          
/* (	0	1	)
(	1	0.818730753077982	)
(	2	0.670320046035639	)
(	3	0.548811636094026	)
(	4	0.449328964117222	)
(	5	0.367879441171442	)
(	6	0.301194211912202	)
(	7	0.246596963941606	)
(	8	0.201896517994655	)
(	9	0.165298888221587	)
(	10	0.135335283236613	)
(	1000	0.135335283236613	) */

            );
        }

    }
}

// ------------------------------------------------------------------------- //
// --- REGIME MAP MODELS --------------------------------------------------- //
// ------------------------------------------------------------------------- //

regimeMapModels
{}

// ------------------------------------------------------------------------- //
// --- REGIME PHYSICS ------------------------------------------------------ //
// ------------------------------------------------------------------------- //

physicsModels
{
    dragModels
    {
        "hx"
        {
            type    ReynoldsPower;
            coeff   0.5;
            exp     -0.25;
        }
    }

    heatTransferModels
    {
        "hx"
        {
            type    constant;
            value   1e+4;
        }
    }
}

// ------------------------------------------------------------------------- //
// --- MISCELLANEA --------------------------------------------------------- //
// ------------------------------------------------------------------------- //

pMin                    10000;
pRefCell                0;
pRefValue               100000;

// ************************************************************************* //
